Version 4
SHEET 1 880 680
WIRE 176 80 176 64
WIRE 240 80 176 80
WIRE 176 96 176 80
WIRE 112 128 96 128
WIRE 176 192 176 160
WIRE 112 224 96 224
WIRE 176 272 176 256
FLAG 176 272 0
FLAG 96 128 .
IOPIN 96 128 In
FLAG 96 224 .
IOPIN 96 224 In
FLAG 240 80 .
IOPIN 240 80 In
SYMBOL svg\\svg_nmos 112 80 R0
SYMATTR InstName .
SYMBOL svg\\svg_nmos 112 176 R0
SYMATTR InstName .
SYMBOL svg\\svg_meas_I 224 64 R180
SYMATTR InstName X1
TEXT 208 24 Left 2 ;$VAL{I_D,=}$
TEXT 264 80 Left 2 ;$v_o$
TEXT 184 128 Left 2 ;$M_2$
TEXT 184 224 Left 2 ;$M_1$
TEXT 72 128 Right 2 ;$V_{B2}$
TEXT 72 224 Right 2 ;$V_{B1}$
LINE Normal 176 0 176 64 1
