Version 4
SHEET 1 1120 680
WIRE -800 144 -800 96
WIRE -416 144 -416 96
WIRE -864 176 -880 176
WIRE -480 176 -496 176
WIRE -800 256 -800 208
WIRE -416 256 -416 208
FLAG -800 96 .
IOPIN -800 96 In
FLAG -880 176 .
IOPIN -880 176 In
FLAG -800 256 .
IOPIN -800 256 In
FLAG -416 256 .
IOPIN -416 256 In
FLAG -416 96 .
IOPIN -416 96 In
FLAG -496 176 .
IOPIN -496 176 In
SYMBOL svg\\svg_nmos -864 128 R0
SYMATTR InstName .
SYMBOL svg\\svg_meas_V3 -912 208 R0
SYMATTR InstName X1
SYMBOL svg\\svg_meas_plus -736 128 R0
SYMATTR InstName X2
SYMBOL svg\\svg_meas_minus -736 224 R0
SYMATTR InstName X3
SYMBOL svg\\svg_meas_I -736 144 R180
SYMATTR InstName X4
SYMBOL svg\\svg_pmos -480 128 R0
SYMATTR InstName .
SYMBOL svg\\svg_meas_I -352 272 R180
SYMATTR InstName X5
SYMBOL svg\\svg_meas_plus -352 128 R0
SYMATTR InstName X6
SYMBOL svg\\svg_meas_minus -352 224 R0
SYMATTR InstName X8
SYMBOL svg\\svg_meas_V3 -432 112 M0
SYMATTR InstName X10
SYMBOL svg\\svg_meas_I -736 272 R180
SYMATTR InstName X9
SYMBOL svg\\svg_meas_I -352 144 R180
SYMATTR InstName X11
TEXT -856 232 Right 2 ;$V_{GS}$
TEXT -712 176 Center 2 ;$V_{DS}$
TEXT -760 96 Left 2 ;$I_D$
TEXT -800 72 Bottom 2 ;$D$
TEXT -800 280 Top 2 ;$S$
TEXT -904 176 Right 2 ;$G$
TEXT -368 256 Left 2 ;$I_D$
TEXT -328 176 Center 2 ;$V_{SD}$
TEXT -416 72 Bottom 2 ;$S$
TEXT -416 280 Top 2 ;$D$
TEXT -520 176 Right 2 ;$G$
TEXT -472 120 Right 2 ;$V_{SG}$
TEXT -824 344 Center 2 ;NMOS
TEXT -448 344 Center 2 ;PMOS
TEXT -752 248 Left 2 ;$I_S$
TEXT -368 88 Left 2 ;$I_S$
