Version 4
SHEET 1 1120 680
WIRE -800 32 -800 0
WIRE -800 144 -800 96
WIRE -864 176 -992 176
WIRE -800 256 -800 208
WIRE -992 288 -992 176
WIRE -800 352 -800 320
FLAG -992 288 0
FLAG -800 0 .
IOPIN -800 0 BiDir
FLAG -800 352 .
IOPIN -800 352 BiDir
SYMBOL svg\\svg_nmos -864 128 R0
SYMATTR InstName .
SYMBOL svg\\svg_res -816 32 R0
SYMATTR InstName .
SYMATTR Value ""
SYMBOL svg\\svg_res -816 256 R0
SYMATTR InstName .
SYMATTR Value ""
SYMBOL svg\\svg_meas_I -736 160 R180
SYMATTR InstName X1
SYMBOL svg\\svg_meas_V3 -912 208 R0
SYMATTR InstName X2
TEXT -800 -24 Bottom 2 ;$2V$
TEXT -800 376 Top 2 ;-2V
TEXT -800 176 Left 2 ;$M_1$
TEXT -752 128 Left 2 ;$I_D$
TEXT -768 272 Left 2 ;$R_S$
TEXT -864 232 Right 2 ;$V_{GS}$
TEXT -640 128 Left 2 ;$VAL{V_tn,=}$
TEXT -640 160 Left 2 ;$VAL{munCox,=}$
TEXT -640 256 Left 2 ;$VAL{lambda_n,=}$
TEXT -640 192 Left 2 ;$VAL{W,=}$
TEXT -640 224 Left 2 ;$VAL{L,=}$
TEXT -768 40 Left 2 ;$R_D$
