Version 4
SHEET 1 1120 920
WIRE -944 416 -976 416
WIRE -768 416 -880 416
WIRE -656 416 -704 416
WIRE -576 416 -656 416
WIRE -976 448 -976 416
WIRE -656 448 -656 416
WIRE -976 544 -976 512
WIRE -768 544 -976 544
WIRE -656 544 -656 512
WIRE -656 544 -704 544
WIRE -592 544 -656 544
WIRE -576 544 -592 544
WIRE -592 576 -592 544
FLAG -592 576 0
FLAG -576 416 A
IOPIN -576 416 In
FLAG -576 544 B
IOPIN -576 544 In
SYMBOL svg\\svg_voltage -976 448 R0
SYMATTR InstName .
SYMATTR Value ""
SYMBOL svg\\svg_res -880 400 R90
WINDOW 0 0 32 VBottom 2
WINDOW 3 32 32 VTop 2
SYMATTR InstName .
SYMATTR Value ""
SYMBOL svg\\svg_res -704 528 R90
WINDOW 0 0 32 VBottom 2
WINDOW 3 32 32 VTop 2
SYMATTR InstName .
SYMATTR Value ""
SYMBOL svg\\svg_res -640 512 R180
WINDOW 3 40 -1 Left 2
SYMATTR Value ""
SYMATTR InstName .
SYMBOL svg\\svg_voltage -768 416 R270
WINDOW 0 24 32 VTop 2
WINDOW 3 -24 32 VBottom 2
SYMATTR InstName .
SYMATTR Value ""
TEXT -736 384 Bottom 2 ;$VAL{V_1,=}$
TEXT -912 392 Bottom 2 ;$VAL{R_1,=}$
TEXT -1016 496 Right 2 ;$VAL{V_2}$
TEXT -1016 464 Right 2 ;$V_2$
TEXT -736 568 Top 2 ;$VAL{R_2,=}$
TEXT -632 496 Left 2 ;$VAL{R_3}$
TEXT -632 456 Left 2 ;$R_3$
