Version 4
SHEET 1 1120 680
WIRE -1088 160 -1200 160
WIRE -960 160 -1008 160
WIRE -912 160 -960 160
WIRE -752 160 -832 160
WIRE -688 160 -752 160
WIRE -752 192 -752 160
WIRE -1200 208 -1200 160
WIRE -960 208 -960 160
WIRE -1200 320 -1200 288
WIRE -960 320 -960 272
WIRE -752 320 -752 256
FLAG -960 320 0
FLAG -752 320 0
FLAG -1200 320 0
SYMBOL res -992 144 R90
WINDOW 0 0 56 VBottom 2
WINDOW 3 32 56 VTop 2
SYMATTR InstName R1
SYMBOL cap -976 208 R0
SYMATTR InstName C1
SYMBOL ind -928 176 R270
WINDOW 0 32 56 VTop 2
WINDOW 3 5 56 VBottom 2
SYMATTR InstName L1
SYMBOL diode -768 192 R0
SYMATTR InstName D1
SYMBOL voltage -1200 192 R0
SYMATTR InstName V1
SYMBOL svg\\svg_nmos -1136 -64 R0
SYMATTR InstName M1
SYMBOL svg\\svg_diode -960 -48 R0
SYMATTR InstName D2
SYMBOL Digital\\schmitt -816 -32 R0
SYMATTR InstName A1
