Version 4
SHEET 1 1120 1040
WIRE -784 720 -928 720
WIRE -656 720 -784 720
WIRE -576 720 -656 720
WIRE -928 752 -928 720
WIRE -784 752 -784 720
WIRE -656 752 -656 720
WIRE -928 848 -928 816
WIRE -784 848 -784 816
WIRE -784 848 -928 848
WIRE -656 848 -656 816
WIRE -656 848 -784 848
WIRE -592 848 -656 848
WIRE -576 848 -592 848
WIRE -592 880 -592 848
FLAG -592 880 0
FLAG -576 720 A
IOPIN -576 720 In
FLAG -576 848 B
IOPIN -576 848 In
SYMBOL svg_res -672 752 R0
WINDOW 3 42 48 Left 2
WINDOW 0 43 13 Left 2
SYMATTR Value \val{R_3}
SYMATTR InstName R_3
SYMBOL svg_res -768 816 R180
WINDOW 0 41 56 Left 2
WINDOW 3 39 11 Left 2
SYMATTR InstName R_4
SYMATTR Value $VAL{R_4}$
SYMBOL svg\\svg_current -928 816 M180
WINDOW 0 -36 55 Right 2
WINDOW 3 -32 9 Right 2
SYMATTR InstName I_4
SYMATTR Value $VAL{I_4}$
