Version 4
SHEET 1 1120 680
WIRE -832 128 -976 128
WIRE -768 128 -832 128
WIRE -656 128 -704 128
WIRE -576 128 -656 128
WIRE -976 160 -976 128
WIRE -832 160 -832 128
WIRE -656 160 -656 128
WIRE -976 256 -976 224
WIRE -832 256 -832 224
WIRE -832 256 -976 256
WIRE -768 256 -832 256
WIRE -656 256 -656 224
WIRE -656 256 -704 256
WIRE -592 256 -656 256
WIRE -576 256 -592 256
WIRE -592 288 -592 256
FLAG -592 288 0
FLAG -576 128 A
IOPIN -576 128 In
FLAG -576 256 B
IOPIN -576 256 In
SYMBOL svg\\svg_voltage -768 128 R270
WINDOW 0 24 32 VTop 2
WINDOW 3 33 33 VTop 2
SYMATTR InstName .
SYMATTR Value $VAL{V_1,=}$
SYMBOL svg\\svg_current -976 160 R0
WINDOW 0 -33 17 Right 2
WINDOW 3 -33 53 Right 2
SYMATTR InstName I_1
SYMATTR Value $VAL{I_1}$
SYMBOL svg\\svg_res -848 160 R0
WINDOW 0 40 15 Left 2
WINDOW 3 39 50 Left 2
SYMATTR InstName R_1
SYMATTR Value $VAL{R_1}$
SYMBOL svg\\svg_res -672 160 R0
WINDOW 0 41 13 Left 2
WINDOW 3 41 50 Left 2
SYMATTR InstName R_3
SYMATTR Value $VAL{R_3}$
SYMBOL svg\\svg_res -704 240 R90
WINDOW 0 0 32 VBottom 2
WINDOW 3 32 32 VTop 2
SYMATTR InstName .
SYMATTR Value $VAL{R_2,=}$
