Version 4
SHEET 1 1120 920
WIRE -944 416 -976 416
WIRE -768 416 -880 416
WIRE -656 416 -704 416
WIRE -576 416 -656 416
WIRE -976 448 -976 416
WIRE -656 448 -656 416
WIRE -976 544 -976 512
WIRE -768 544 -976 544
WIRE -656 544 -656 512
WIRE -656 544 -704 544
WIRE -592 544 -656 544
WIRE -576 544 -592 544
WIRE -592 576 -592 544
FLAG -592 576 0
FLAG -576 416 A
IOPIN -576 416 In
FLAG -576 544 B
IOPIN -576 544 In
SYMBOL svg_res -880 400 R90
WINDOW 0 -11 112 VBottom 2
WINDOW 3 -24 27 VBottom 2
SYMATTR InstName .
SYMATTR Value $VAL{R_1,=}$
SYMBOL svg_res -704 528 R90
WINDOW 0 60 82 Left 2
WINDOW 3 39 31 VTop 2
SYMATTR InstName .
SYMATTR Value $VAL{R_2,=}$
SYMBOL svg_voltage -768 416 M90
WINDOW 0 -25 -109 Left 2
WINDOW 3 -30 32 VBottom 2
SYMATTR InstName .
SYMATTR Value $VAL{V_1,=}$
SYMBOL svg_voltage -976 448 M0
WINDOW 3 37 53 Left 2
WINDOW 0 43 14 Left 2
SYMATTR Value $VAL{V_2}$
SYMATTR InstName V_2
SYMBOL svg\\svg_res -672 448 R0
WINDOW 0 41 13 Left 2
WINDOW 3 39 51 Left 2
SYMATTR InstName R_3
SYMATTR Value $VAL{R_3}$
