Version 4
SHEET 1 1120 1040
WIRE -832 720 -864 720
WIRE -656 720 -768 720
WIRE -576 720 -656 720
WIRE -864 752 -864 720
WIRE -656 752 -656 720
WIRE -864 848 -864 816
WIRE -656 848 -656 816
WIRE -656 848 -864 848
WIRE -592 848 -656 848
WIRE -576 848 -592 848
WIRE -592 880 -592 848
FLAG -592 880 0
FLAG -576 720 A
IOPIN -576 720 In
FLAG -576 848 B
IOPIN -576 848 In
SYMBOL svg_res -672 752 R0
WINDOW 3 42 48 Left 2
WINDOW 0 43 13 Left 2
SYMATTR Value \val{R_3}
SYMATTR InstName R_3
SYMBOL svg_voltage -864 752 M0
WINDOW 3 31 50 Left 2
WINDOW 0 36 11 Left 2
SYMATTR Value $VAL{V_4}$
SYMATTR InstName V_4
SYMBOL svg_res -768 704 R90
WINDOW 0 -11 112 VBottom 2
WINDOW 3 -16 35 VBottom 2
SYMATTR InstName .
SYMATTR Value $VAL{R_4,=}$
