Version 4
SHEET 1 1120 1040
WIRE -656 720 -768 720
WIRE -576 720 -656 720
WIRE -768 752 -768 720
WIRE -656 752 -656 720
WIRE -768 848 -768 816
WIRE -656 848 -656 816
WIRE -656 848 -768 848
WIRE -592 848 -656 848
WIRE -576 848 -592 848
WIRE -592 880 -592 848
FLAG -592 880 0
FLAG -576 720 A
IOPIN -576 720 In
FLAG -576 848 B
IOPIN -576 848 In
SYMBOL svg_res -672 752 R0
WINDOW 3 42 49 Left 2
WINDOW 0 43 13 Left 2
SYMATTR Value $VAL{R_out}$
SYMATTR InstName .
SYMBOL svg\\svg_current -768 816 M180
WINDOW 0 -36 44 Right 2
WINDOW 3 -36 14 Right 2
SYMATTR InstName .
SYMATTR Value $VAL{i_sc}$
TEXT -808 760 Right 2 ;$i_{sc}$
TEXT -624 760 Left 2 ;$R_{out}$
