Version 4
SHEET 1 1120 680
WIRE -688 128 -784 128
WIRE -576 128 -624 128
WIRE -160 128 -272 128
WIRE -64 128 -160 128
WIRE -784 160 -784 128
WIRE -272 160 -272 128
WIRE -160 160 -160 128
WIRE -784 256 -784 224
WIRE -592 256 -784 256
WIRE -576 256 -592 256
WIRE -272 256 -272 224
WIRE -160 256 -160 224
WIRE -160 256 -272 256
WIRE -80 256 -160 256
WIRE -64 256 -80 256
WIRE -592 288 -592 256
WIRE -80 288 -80 256
FLAG -592 288 0
FLAG -576 128 A
IOPIN -576 128 In
FLAG -576 256 B
IOPIN -576 256 In
FLAG -80 288 0
FLAG -64 128 A
IOPIN -64 128 In
FLAG -64 256 B
IOPIN -64 256 In
SYMBOL svg\\svg_voltage -784 160 R0
WINDOW 0 -37 13 Right 2
WINDOW 3 -35 57 Right 2
SYMATTR InstName .
SYMATTR Value $VAL{v_oc}$
SYMBOL svg\\svg_res -624 112 R90
WINDOW 0 -1 32 VBottom 2
WINDOW 3 35 31 VTop 2
SYMATTR InstName .
SYMATTR Value $VAL{R_out}$
SYMBOL svg\\svg_res -176 224 M180
WINDOW 0 40 44 Left 2
WINDOW 3 40 16 Left 2
SYMATTR InstName .
SYMATTR Value $VAL{R_out}$
SYMBOL svg\\svg_current -272 224 M180
WINDOW 0 -37 50 Right 2
WINDOW 3 -36 15 Right 2
SYMATTR InstName .
SYMATTR Value $VAL{i_sc}$
TEXT -816 168 Right 2 ;$v_{oc}$
TEXT -312 168 Right 2 ;$i_{sc}$
TEXT -656 88 Bottom 2 ;$R_{out}$
TEXT -144 168 Left 2 ;$R_{out}$
TEXT -784 328 Left 2 ;Thevenin Equivalent
TEXT -264 328 Left 2 ;Norton Equivalent
