Version 4
SHEET 1 1120 680
WIRE -800 144 -800 128
WIRE -864 176 -880 176
WIRE -800 224 -800 208
FLAG -800 128 .
IOPIN -800 128 In
FLAG -880 176 .
IOPIN -880 176 In
FLAG -800 224 .
IOPIN -800 224 In
SYMBOL svg\\svg_meas_V3 -816 112 M0
SYMATTR InstName X1
SYMBOL svg\\svg_meas_plus -736 128 R0
SYMATTR InstName X2
SYMBOL svg\\svg_meas_minus -736 224 R0
SYMATTR InstName X3
SYMBOL svg\\svg_meas_I -736 272 R180
SYMATTR InstName X4
SYMBOL svg\\svg_pmos -864 128 R0
SYMATTR InstName .
TEXT -640 136 Left 2 ;$VAL{upCox,=}$
TEXT -640 176 Left 2 ;$VAL{V_tp,=}$
TEXT -640 216 Left 2 ;$VAL{WL,=}$
TEXT -864 128 Center 2 ;$V_{SG}$
TEXT -712 176 Center 2 ;$V_{SD}$
TEXT -752 248 Left 2 ;$I_D$
TEXT -800 120 Bottom 2 ;$S$
TEXT -888 176 Right 2 ;$G$
TEXT -800 232 Top 2 ;$D$

